trunk/Version7/Test/TestAutotransformer.dss
Clearall

// Script to Test new autotransformer model

New Circuit.TestAutotrans
~ BasekV=115


/****************************************

New Autotrans.Auto3 phases=3 windings=2 XHX=10  
~ wdg=1 kV=115 Bus=SourceBus kVA=100000 %R=.1
~ wdg=2 kV=69  Bus=LoadBus.1.2.3.4 kVA=100000   %R=.1
*/

/****************************************
New Autotrans.Auto1 phases=1 windings=2 XHX=10  
~ wdg=1 kV=(115 3 sqrt /) Bus=SourceBus.1 kVA=33333   %R=.1
~ wdg=2 kV=(69   3 sqrt /) Bus=LoadBus.1.0  kVA=33333   %R=.1
********************************/

New Load.Load1 Phases=3 bus1=Loadbus   kV=69 kW=10000 pF=1

/****************************************
New Transformer.YY1 phases=3 windings=2  XHL=10  
~ wdg=1 kV=115 Bus=SourceBus kVA=100000   %R=.1 Conn=wye
~ wdg=2 kV=69  Bus=LoadBus2 kVA=100000   %R=.1  Conn=wye

// 1-phase auto with old transformer model
New Transformer.1ph phases=1 windings=2  XHL=10  
~ wdg=1 kV=26.558 Bus=SourceBus.1.11  kVA=33333   %R=.1  Conn=wye
~ wdg=2 kV=39.837 Bus=SourceBus.11.0  kVA=33333   %R=.1  Conn=wye

New Load.Load2 Phases=3 bus1=Loadbus2 kV=69 kW=10000 pF=1
*/

Set voltagebases=[115, 69]
calcvoltagebases

/*
New REGCONTROL.Reg1 transformer=Auto1 winding=2  ptratio=331.98  vreg=125 maxtapchange=1  tapwinding=1   ! bus=Xbus.1 
*/

*
New REGCONTROL.Reg2 transformer=1ph winding=2  ptratio=331.98  vreg=125 maxtapchange=1    ! bus=Xbus.1 
*/


Set maxcontrol=30

solve

Show Currents Elements
Show Voltage LN Nodes
Show power kVA elem
Show losses

/*******
Dump Debug
Show Eventlog
show taps
****/

